** written by FreeCAD inp file writer for CalculiX,Abaqus meshes
** highest dimension mesh elements only.

** Nodes
*Node, NSET=Nall
1, 400, 7.347880794884e-15, 30
2, 0, 7.347880794884e-15, 30
3, 600, 7.347880794884e-15, 30
4, 400, -7.764571353076, 28.97777478867
5, 400, -15, 25.98076211353
6, 400, -21.2132034356, 21.2132034356
7, 400, -25.98076211353, 15
8, 400, -28.97777478867, 7.764571353076
9, 400, -30, 1.515964649422e-14
10, 400, -28.97777478867, -7.764571353076
11, 400, -25.98076211353, -15
12, 400, -21.2132034356, -21.2132034356
13, 400, -15, -25.98076211353
14, 400, -7.764571353076, -28.97777478867
15, 400, -1.369007033525e-13, -30
16, 400, 7.764571353075, -28.97777478867
17, 400, 15, -25.98076211353
18, 400, 21.2132034356, -21.2132034356
19, 400, 25.98076211353, -15
20, 400, 28.97777478867, -7.764571353076
** ... 4021 like lines cut


** Volume elements
*Element, TYPE=C3D4, ELSET=Evolumes
5398, 2681, 2825, 3016, 3223
5399, 2817, 2581, 2733, 3052
5400, 2831, 2907, 2968, 3237
5401, 2728, 2697, 3131, 3188
5402, 2745, 519, 2807, 3050
5403, 2751, 2558, 2931, 3071
5404, 2733, 2817, 3052, 3461
5405, 2925, 1394, 2983, 3083
5406, 2794, 1549, 2697, 3279
5407, 3157, 2599, 2688, 3194
5408, 2977, 2590, 2737, 3314
5409, 2567, 2695, 2839, 2873
5410, 2573, 3031, 3056, 3212
5411, 2943, 839, 2700, 3017
5412, 2898, 1656, 2689, 3233
5413, 2630, 2608, 2765, 2874
5414, 56, 2967, 3263, 3359
5415, 2573, 2700, 3031, 3212
5416, 2669, 2586, 2725, 2878
5417, 3009, 2661, 2573, 3056
** ... 16594 like lines cut

** Define element set Eall
*ELSET, ELSET=Eall
Evolumes



***********************************************************
** Element sets for materials and FEM element type (solid, shell, beam, fluid)
*ELSET,ELSET=Aluminium_6061_T6Solid
Evolumes

***********************************************************
** constraints fixed node sets
** Fixed_End_x0
*NSET,NSET=Fixed_End_x0
2,
76,
77,
78,
79,
80,
81,
82,
83,
84,
85,
86,
87,
88,
89,
90,
91,
92,
93,
94,
** ... 54 like lines cut

** Physical constants for SI(mm) unit system with Kelvins
*PHYSICAL CONSTANTS, ABSOLUTE ZERO=0, STEFAN BOLTZMANN=5.670374419e-11

***********************************************************
** Materials
** see information about units at file end
** FreeCAD material name: Aluminium 6061-T6
** Aluminium_6061_T6
*MATERIAL, NAME=Aluminium_6061_T6
*ELASTIC
68900,0.33
*EXPANSION, ZERO=0
0

***********************************************************
** Sections
*SOLID SECTION, ELSET=Aluminium_6061_T6Solid, MATERIAL=Aluminium_6061_T6

***********************************************************
** At least one step is needed to run an CalculiX analysis of FreeCAD
*STEP, INC=2000
*STATIC
1.0,1.0,1e-05,1.0

***********************************************************
** Fixed Constraints
** Fixed_End_x0
*BOUNDARY
Fixed_End_x0,1
Fixed_End_x0,2
Fixed_End_x0,3


***********************************************************
** constraints force node loads
** End_Axial_100kN_plus_X
*CLOAD
** node loads on shape: Partitioned_Shaft:Face5
3,1,865.596308059
99,1,783.33413064
100,1,671.181796316
101,1,756.86188226
102,1,848.176957814
103,1,750.899723352
104,1,694.763643537
105,1,776.95575558
106,1,776.95575558
107,1,705.193979458
108,1,795.24073781
109,1,927.039625127
110,1,927.654040244
111,1,791.158096701
112,1,671.739525676
113,1,756.86188226
114,1,848.176957814
115,1,750.899723352
116,1,694.763643537
117,1,776.95575558
** ... 53 like lines cut


** End_Vertical_10kN_minus_Y
*CLOAD
** node loads on shape: Partitioned_Shaft:Face5
3,2,-86.5596308059
99,2,-78.333413064
100,2,-67.1181796316
101,2,-75.686188226
102,2,-84.8176957814
103,2,-75.0899723352
104,2,-69.4763643537
105,2,-77.695575558
106,2,-77.695575558
107,2,-70.5193979458
108,2,-79.524073781
109,2,-92.7039625127
110,2,-92.7654040244
111,2,-79.1158096701
112,2,-67.1739525676
113,2,-75.686188226
114,2,-84.8176957814
115,2,-75.0899723352
116,2,-69.4763643537
117,2,-77.695575558
** ... 53 like lines cut


** Middle_20kN_plus_Z
*CLOAD
** node loads on shape: Partitioned_Shaft:Face2
1,3,173.119261612
4,3,156.666826128
5,3,134.236359263
6,3,151.372376452
7,3,169.635391563
8,3,150.17994467
9,3,138.952728707
10,3,155.391151116
11,3,155.391151116
12,3,141.038795892
13,3,159.048147562
14,3,185.407925025
15,3,185.530808049
16,3,158.23161934
17,3,134.347905135
18,3,151.372376452
19,3,169.635391563
20,3,150.17994467
21,3,138.952728707
22,3,155.391151116
** ... 53 like lines cut



***********************************************************
** Outputs --> frd file
*NODE FILE
U
*EL FILE
S, E
** outputs --> dat file
** reaction forces for Constraint fixed
*NODE PRINT, NSET=Fixed_End_x0, TOTALS=ONLY
RF

*OUTPUT, FREQUENCY=1
***********************************************************
*END STEP

***********************************************************
** CalculiX Input file
**   written by    --> FreeCAD 1.1.0
**   written on    --> Tue Jun  9 02:56:31 2026
**   file name     --> 
**   analysis name --> Analysis
**
**
***********************************************************
**  About units:
**  See ccx manual, ccx does not know about any unit.
**  Golden rule: The user must make sure that the numbers they provide have consistent units.
**  The user is the FreeCAD calculix writer module ;-)
**
**  The unit system which is used at Guido Dhondt's company: mm, N, s, K
**  Since Length and Mass are connected by Force, if Length is mm the Mass is in t to get N
**  The following units are used to write to inp file:
**
**  Length: mm (this includes the mesh geometry)
**  Mass: t
**  TimeSpan: s
**  Temperature: K
**
**  This leads to:
**  Force: N
**  Pressure: N/mm^2 == MPa (Young's Modulus has unit Pressure)
**  Density: t/mm^3
**  Gravity: mm/s^2
**  Thermal conductivity: t*mm/K/s^3 == as W/m/K == kW/mm/K
**  Specific Heat: mm^2/s^2/K = J/kg/K == kJ/t/K
**
